<?xml version="1.0" encoding="UTF-8"?>

<!-- generated on 2025-12-09T13:58:07.479987+01:00 by Eclipse SUMO sumo 1.25.0
-->

<sumoConfiguration xmlns:xsi="http://www.w3.org/2001/XMLSchema-instance" xsi:noNamespaceSchemaLocation="http://sumo.dlr.de/xsd/sumoConfiguration.xsd">

    <input>
        <net-file value="Demo2.net.xml"/>
        <route-files value="Demo2.rou.xml"/>
    </input>

</sumoConfiguration>
