<?xml version="1.0" encoding="UTF-8"?>

<!-- generated on 2025-12-14 19:21:04 by Eclipse SUMO netedit Version 1.24.0
<neteditConfiguration xmlns:xsi="http://www.w3.org/2001/XMLSchema-instance" xsi:noNamespaceSchemaLocation="http://sumo.dlr.de/xsd/neteditConfiguration.xsd">

    <input>
        <sumo-net-file value="/Users/hamza/Desktop/3.Semester/Java/finalsumo.net.xml"/>
    </input>

    <output>
        <output-file value="/Users/hamza/Desktop/3.Semester/Java/finalsumo.net.xml"/>
    </output>

    <processing>
        <geometry.min-radius.fix.railways value="false"/>
        <geometry.avoid-overlap value="false"/>
        <geometry.max-grade.fix value="false"/>
        <offset.disable-normalization value="true"/>
        <lefthand value="0"/>
    </processing>

    <junctions>
        <no-turnarounds value="true"/>
        <junctions.corner-detail value="5"/>
        <junctions.limit-turn-speed value="5.50"/>
        <rectangular-lane-cut value="0"/>
    </junctions>

    <pedestrian>
        <walkingareas value="0"/>
    </pedestrian>

    <netedit>
        <ignore.additionalelements value="0"/>
        <ignore.routeelements value="0"/>
    </netedit>

</neteditConfiguration>
-->

<net version="1.20" junctionCornerDetail="5" limitTurnSpeed="5.50" avoidOverlap="0" xmlns:xsi="http://www.w3.org/2001/XMLSchema-instance" xsi:noNamespaceSchemaLocation="http://sumo.dlr.de/xsd/net_file.xsd">

    <location netOffset="0.00,0.00" convBoundary="-900.00,-1100.00,200.00,-100.00" origBoundary="-10000000000.00,-10000000000.00,10000000000.00,10000000000.00" projParameter="!"/>

    <edge id=":J1_0" function="internal">
        <lane id=":J1_0_0" index="0" speed="10.53" length="21.26" shape="-891.80,-195.58 -896.05,-197.92 -898.85,-201.65 -900.22,-206.74 -900.14,-213.22"/>
    </edge>
    <edge id=":J1_1" function="internal">
        <lane id=":J1_1_0" index="0" speed="8.02" length="7.26" shape="-891.80,-195.58 -895.99,-197.90 -896.97,-200.17"/>
    </edge>
    <edge id=":J1_6" function="internal">
        <lane id=":J1_6_0" index="0" speed="8.02" length="12.03" shape="-896.97,-200.17 -897.39,-201.15 -896.02,-205.32 -891.85,-210.41"/>
    </edge>
    <edge id=":J1_2" function="internal">
        <lane id=":J1_2_0" index="0" speed="6.49" length="12.17" shape="-889.59,-208.15 -892.46,-204.76 -893.61,-202.04 -893.06,-199.99 -890.79,-198.62"/>
    </edge>
    <edge id=":J1_3" function="internal">
        <lane id=":J1_3_0" index="0" speed="7.54" length="21.00" shape="-889.59,-208.15 -894.94,-203.78 -898.48,-203.16 -900.21,-206.31 -900.14,-213.22"/>
    </edge>
    <edge id=":J1_4" function="internal">
        <lane id=":J1_4_0" index="0" speed="5.46" length="10.17" shape="-896.96,-212.87 -897.00,-209.52 -896.16,-208.00 -894.44,-208.29 -891.85,-210.41"/>
    </edge>
    <edge id=":J1_5" function="internal">
        <lane id=":J1_5_0" index="0" speed="9.43" length="16.88" shape="-896.96,-212.87 -897.06,-207.57 -896.07,-203.42 -893.98,-200.44 -890.79,-198.62"/>
    </edge>
    <edge id=":J2_0" function="internal">
        <lane id=":J2_0_0" index="0" speed="6.51" length="9.03" shape="-396.04,-693.78 -398.02,-695.26 -400.00,-695.76 -401.98,-695.26 -403.96,-693.78"/>
    </edge>
    <edge id=":J2_1" function="internal">
        <lane id=":J2_1_0" index="0" speed="13.89" length="14.40" shape="-396.04,-693.78 -406.22,-703.96"/>
    </edge>
    <edge id=":J2_2" function="internal">
        <lane id=":J2_2_0" index="0" speed="8.00" length="4.07" shape="-396.04,-693.78 -398.37,-696.89 -398.42,-697.06"/>
    </edge>
    <edge id=":J2_12" function="internal">
        <lane id=":J2_12_0" index="0" speed="8.00" length="10.13" shape="-398.42,-697.06 -399.15,-700.00 -398.37,-703.11 -396.04,-706.22"/>
    </edge>
    <edge id=":J2_3" function="internal">
        <lane id=":J2_3_0" index="0" speed="6.51" length="9.03" shape="-393.78,-703.96 -395.26,-701.98 -395.76,-700.00 -395.26,-698.02 -393.78,-696.04"/>
    </edge>
    <edge id=":J2_4" function="internal">
        <lane id=":J2_4_0" index="0" speed="13.89" length="14.40" shape="-393.78,-703.96 -403.96,-693.78"/>
    </edge>
    <edge id=":J2_5" function="internal">
        <lane id=":J2_5_0" index="0" speed="8.00" length="4.07" shape="-393.78,-703.96 -396.89,-701.63 -397.06,-701.58"/>
    </edge>
    <edge id=":J2_13" function="internal">
        <lane id=":J2_13_0" index="0" speed="8.00" length="10.13" shape="-397.06,-701.58 -400.00,-700.85 -403.11,-701.63 -406.22,-703.96"/>
    </edge>
    <edge id=":J2_6" function="internal">
        <lane id=":J2_6_0" index="0" speed="6.51" length="9.03" shape="-403.96,-706.22 -401.98,-704.74 -400.00,-704.24 -398.02,-704.74 -396.04,-706.22"/>
    </edge>
    <edge id=":J2_7" function="internal">
        <lane id=":J2_7_0" index="0" speed="13.89" length="14.40" shape="-403.96,-706.22 -393.78,-696.04"/>
    </edge>
    <edge id=":J2_8" function="internal">
        <lane id=":J2_8_0" index="0" speed="8.00" length="4.07" shape="-403.96,-706.22 -401.63,-703.11 -401.58,-702.94"/>
    </edge>
    <edge id=":J2_14" function="internal">
        <lane id=":J2_14_0" index="0" speed="8.00" length="10.13" shape="-401.58,-702.94 -400.85,-700.00 -401.63,-696.89 -403.96,-693.78"/>
    </edge>
    <edge id=":J2_9" function="internal">
        <lane id=":J2_9_0" index="0" speed="6.51" length="9.03" shape="-406.22,-696.04 -404.74,-698.02 -404.24,-700.00 -404.74,-701.98 -406.22,-703.96"/>
    </edge>
    <edge id=":J2_10" function="internal">
        <lane id=":J2_10_0" index="0" speed="13.89" length="14.40" shape="-406.22,-696.04 -396.04,-706.22"/>
    </edge>
    <edge id=":J2_11" function="internal">
        <lane id=":J2_11_0" index="0" speed="8.00" length="4.07" shape="-406.22,-696.04 -403.11,-698.37 -402.94,-698.42"/>
    </edge>
    <edge id=":J2_15" function="internal">
        <lane id=":J2_15_0" index="0" speed="8.00" length="10.13" shape="-402.94,-698.42 -400.00,-699.15 -396.89,-698.37 -393.78,-696.04"/>
    </edge>
    <edge id=":J3_0" function="internal">
        <lane id=":J3_0_0" index="0" speed="9.41" length="23.04" shape="198.71,-114.60 199.27,-107.51 197.72,-102.45 194.06,-99.41 188.27,-98.40"/>
    </edge>
    <edge id=":J3_1" function="internal">
        <lane id=":J3_1_0" index="0" speed="7.69" length="22.83" shape="198.71,-114.60 199.54,-106.96 198.12,-103.51 194.47,-104.25 188.57,-109.17"/>
    </edge>
    <edge id=":J3_2" function="internal">
        <lane id=":J3_2_0" index="0" speed="5.48" length="10.68" shape="190.83,-111.43 193.59,-109.13 195.30,-108.79 195.96,-110.40 195.57,-113.97"/>
    </edge>
    <edge id=":J3_3" function="internal">
        <lane id=":J3_3_0" index="0" speed="7.74" length="21.14" shape="190.83,-111.43 195.56,-105.73 196.71,-101.66 194.28,-99.21 188.27,-98.40"/>
    </edge>
    <edge id=":J3_4" function="internal">
        <lane id=":J3_4_0" index="0" speed="5.91" length="11.64" shape="188.27,-101.60 191.24,-102.07 192.28,-103.49 191.39,-105.86 188.57,-109.17"/>
    </edge>
    <edge id=":J3_5" function="internal">
        <lane id=":J3_5_0" index="0" speed="8.18" length="17.11" shape="188.27,-101.60 192.40,-102.37 194.99,-104.69 196.05,-108.56 195.57,-113.97"/>
    </edge>
    <edge id=":J4_0" function="internal">
        <lane id=":J4_0_0" index="0" speed="5.71" length="10.17" shape="-792.84,-1090.58 -795.49,-1092.72 -797.50,-1093.21 -798.86,-1092.05 -799.59,-1089.23"/>
    </edge>
    <edge id=":J4_1" function="internal">
        <lane id=":J4_1_0" index="0" speed="7.42" length="19.31" shape="-792.84,-1090.58 -796.69,-1095.40 -797.21,-1098.84 -794.41,-1100.91 -788.27,-1101.60"/>
    </edge>
    <edge id=":J4_2" function="internal">
        <lane id=":J4_2_0" index="0" speed="5.47" length="9.74" shape="-788.27,-1098.40 -791.37,-1098.05 -792.78,-1097.01 -792.52,-1095.27 -790.58,-1092.84"/>
    </edge>
    <edge id=":J4_3" function="internal">
        <lane id=":J4_3_0" index="0" speed="8.88" length="16.22" shape="-788.27,-1098.40 -792.84,-1097.83 -796.25,-1096.11 -798.50,-1093.24 -799.59,-1089.23"/>
    </edge>
    <edge id=":J4_4" function="internal">
        <lane id=":J4_4_0" index="0" speed="10.03" length="20.97" shape="-802.77,-1089.58 -801.36,-1094.84 -798.48,-1098.60 -794.11,-1100.85 -788.27,-1101.60"/>
    </edge>
    <edge id=":J4_5" function="internal">
        <lane id=":J4_5_0" index="0" speed="7.51" length="8.53" shape="-802.77,-1089.58 -801.43,-1095.00 -799.29,-1097.03"/>
    </edge>
    <edge id=":J4_6" function="internal">
        <lane id=":J4_6_0" index="0" speed="7.51" length="10.24" shape="-799.29,-1097.03 -798.95,-1097.35 -795.33,-1096.63 -790.58,-1092.84"/>
    </edge>
    <edge id=":J5_0" function="internal">
        <lane id=":J5_0_0" index="0" speed="5.91" length="10.54" shape="0.39,-1089.90 -0.60,-1092.51 -2.18,-1093.50 -4.37,-1092.85 -7.16,-1090.58"/>
    </edge>
    <edge id=":J5_1" function="internal">
        <lane id=":J5_1_0" index="0" speed="9.20" length="16.21" shape="0.39,-1089.90 -1.01,-1093.62 -3.49,-1096.28 -7.06,-1097.87 -11.73,-1098.40"/>
    </edge>
    <edge id=":J5_2" function="internal">
        <lane id=":J5_2_0" index="0" speed="10.33" length="20.66" shape="-11.73,-1101.60 -5.88,-1100.91 -1.39,-1098.83 1.74,-1095.37 3.53,-1090.53"/>
    </edge>
    <edge id=":J5_3" function="internal">
        <lane id=":J5_3_0" index="0" speed="7.42" length="8.91" shape="-11.73,-1101.60 -5.59,-1100.91 -3.39,-1099.29"/>
    </edge>
    <edge id=":J5_6" function="internal">
        <lane id=":J5_6_0" index="0" speed="7.42" length="10.40" shape="-3.39,-1099.29 -2.79,-1098.84 -3.31,-1095.40 -7.16,-1090.58"/>
    </edge>
    <edge id=":J5_4" function="internal">
        <lane id=":J5_4_0" index="0" speed="5.47" length="9.74" shape="-9.42,-1092.84 -7.48,-1095.27 -7.22,-1097.01 -8.63,-1098.05 -11.73,-1098.40"/>
    </edge>
    <edge id=":J5_5" function="internal">
        <lane id=":J5_5_0" index="0" speed="7.62" length="18.48" shape="-9.42,-1092.84 -4.71,-1096.60 -0.98,-1097.46 1.76,-1095.44 3.53,-1090.53"/>
    </edge>
    <edge id=":J8_0" function="internal">
        <lane id=":J8_0_0" index="0" speed="13.89" length="10.78" shape="-595.05,-98.40 -598.15,-98.46 -600.43,-98.70 -602.66,-99.24 -605.61,-100.18"/>
    </edge>
    <edge id=":J8_1" function="internal">
        <lane id=":J8_1_0" index="0" speed="7.37" length="8.54" shape="-600.98,-107.01 -599.83,-104.64 -598.46,-102.95 -596.87,-101.94 -595.05,-101.60"/>
    </edge>
    <edge id=":J8_2" function="internal">
        <lane id=":J8_2_0" index="0" speed="6.18" length="12.27" shape="-600.98,-107.01 -599.89,-102.98 -600.29,-100.50 -602.20,-99.57 -605.61,-100.18"/>
    </edge>
    <edge id=":J8_3" function="internal">
        <lane id=":J8_3_0" index="0" speed="13.89" length="9.76" shape="-604.60,-103.22 -601.85,-102.32 -599.92,-101.84 -597.94,-101.64 -595.05,-101.60"/>
    </edge>
    <edge id=":clusterJ10_J15_J9_0" function="internal">
        <lane id=":clusterJ10_J15_J9_0_0" index="0" speed="11.11" length="64.33" shape="-593.27,-428.60 -601.34,-453.73 -609.77,-469.00 -618.56,-474.43 -627.72,-470.02"/>
    </edge>
    <edge id=":clusterJ10_J15_J9_1" function="internal">
        <lane id=":clusterJ10_J15_J9_1_0" index="0" speed="11.11" length="65.45" shape="-593.27,-428.60 -601.48,-455.57 -609.39,-472.78 -617.00,-480.24 -624.31,-477.95"/>
    </edge>
    <edge id=":clusterJ10_J15_J9_2" function="internal">
        <lane id=":clusterJ10_J15_J9_2_0" index="0" speed="13.89" length="4.00" shape="-624.89,-472.85 -627.72,-470.02"/>
    </edge>
    <edge id=":clusterJ10_J15_J9_3" function="internal">
        <lane id=":clusterJ10_J15_J9_3_0" index="0" speed="13.89" length="8.02" shape="-629.98,-472.28 -624.31,-477.95"/>
    </edge>
    <edge id=":clusterJ11_J12_J17_0" function="internal">
        <lane id=":clusterJ11_J12_J17_0_0" index="0" speed="9.99" length="32.75" shape="-500.34,-557.07 -503.71,-571.34 -506.83,-580.83 -509.68,-585.54 -512.27,-585.47"/>
    </edge>
    <edge id=":clusterJ11_J12_J17_1" function="internal">
        <lane id=":clusterJ11_J12_J17_1_0" index="0" speed="11.11" length="39.59" shape="-500.34,-557.07 -503.63,-573.40 -505.70,-585.35 -506.55,-592.91 -506.17,-596.09"/>
    </edge>
    <edge id=":clusterJ11_J12_J17_2" function="internal">
        <lane id=":clusterJ11_J12_J17_2_0" index="0" speed="13.89" length="11.82" shape="-503.91,-593.83 -512.27,-585.47"/>
    </edge>
    <edge id=":clusterJ11_J12_J17_3" function="internal">
        <lane id=":clusterJ11_J12_J17_3_0" index="0" speed="13.89" length="11.82" shape="-514.53,-587.73 -506.17,-596.09"/>
    </edge>
    <edge id=":clusterJ13_J14_J15_0" function="internal">
        <lane id=":clusterJ13_J14_J15_0_0" index="0" speed="13.89" length="11.31" shape="-502.21,-98.40 -513.52,-98.40"/>
    </edge>
    <edge id=":clusterJ13_J14_J15_1" function="internal">
        <lane id=":clusterJ13_J14_J15_1_0" index="0" speed="11.10" length="1.68" shape="-502.21,-98.40 -503.68,-99.21"/>
    </edge>
    <edge id=":clusterJ13_J14_J15_4" function="internal">
        <lane id=":clusterJ13_J14_J15_4_0" index="0" speed="11.10" length="21.04" shape="-503.68,-99.21 -504.46,-99.64 -506.81,-103.37 -509.26,-109.58 -511.82,-118.27"/>
    </edge>
    <edge id=":clusterJ13_J14_J15_2" function="internal">
        <lane id=":clusterJ13_J14_J15_2_0" index="0" speed="8.35" length="18.58" shape="-513.52,-101.60 -511.13,-102.64 -510.05,-105.77 -510.28,-110.98 -511.82,-118.27"/>
    </edge>
    <edge id=":clusterJ13_J14_J15_3" function="internal">
        <lane id=":clusterJ13_J14_J15_3_0" index="0" speed="13.89" length="11.31" shape="-513.52,-101.60 -502.21,-101.60"/>
    </edge>
    <edge id=":clusterJ13_J6_J7_0" function="internal">
        <lane id=":clusterJ13_J6_J7_0_0" index="0" speed="13.89" length="35.10" shape="-704.52,-393.21 -705.89,-389.34 -705.27,-382.43 -702.66,-372.48 -698.08,-359.49"/>
    </edge>
    <edge id=":clusterJ13_J6_J7_1" function="internal">
        <lane id=":clusterJ13_J6_J7_1_0" index="0" speed="13.89" length="27.36" shape="-704.52,-393.21 -723.87,-373.87"/>
    </edge>
    <edge id=":clusterJ13_J6_J7_2" function="internal">
        <lane id=":clusterJ13_J6_J7_2_0" index="0" speed="13.89" length="27.36" shape="-726.13,-376.13 -706.79,-395.48"/>
    </edge>
    <edge id=":clusterJ13_J6_J7_3" function="internal">
        <lane id=":clusterJ13_J6_J7_3_0" index="0" speed="11.62" length="2.87" shape="-726.13,-376.13 -723.65,-377.58"/>
    </edge>
    <edge id=":clusterJ13_J6_J7_4" function="internal">
        <lane id=":clusterJ13_J6_J7_4_0" index="0" speed="11.62" length="38.14" shape="-723.65,-377.58 -717.26,-381.32 -709.74,-378.96 -703.40,-371.03 -698.08,-359.49"/>
    </edge>
    <edge id=":clusterJ16_J17_J20_0" function="internal">
        <lane id=":clusterJ16_J17_J20_0_0" index="0" speed="13.89" length="4.90" shape="-397.93,-98.40 -402.83,-98.40"/>
    </edge>
    <edge id=":clusterJ16_J17_J20_1" function="internal">
        <lane id=":clusterJ16_J17_J20_1_0" index="0" speed="10.71" length="3.29" shape="-397.93,-98.40 -400.71,-99.57 -400.87,-99.78"/>
    </edge>
    <edge id=":clusterJ16_J17_J20_4" function="internal">
        <lane id=":clusterJ16_J17_J20_4_0" index="0" speed="10.71" length="18.79" shape="-400.87,-99.78 -403.26,-103.07 -405.58,-108.91 -407.67,-117.09"/>
    </edge>
    <edge id=":clusterJ16_J17_J20_2" function="internal">
        <lane id=":clusterJ16_J17_J20_2_0" index="0" speed="8.66" length="19.46" shape="-397.93,-101.60 -400.97,-102.57 -403.60,-105.47 -405.83,-110.31 -407.67,-117.09"/>
    </edge>
    <edge id=":clusterJ16_J17_J20_3" function="internal">
        <lane id=":clusterJ16_J17_J20_3_0" index="0" speed="13.89" length="0.10" shape="-397.93,-101.60 -397.93,-101.60"/>
    </edge>
    <edge id=":clusterJ18_J21_J22_0" function="internal">
        <lane id=":clusterJ18_J21_J22_0_0" index="0" speed="13.89" length="4.73" shape="-291.08,-98.40 -295.81,-98.40"/>
    </edge>
    <edge id=":clusterJ18_J21_J22_1" function="internal">
        <lane id=":clusterJ18_J21_J22_1_0" index="0" speed="8.69" length="5.48" shape="-291.08,-98.40 -296.34,-99.93"/>
    </edge>
    <edge id=":clusterJ18_J21_J22_4" function="internal">
        <lane id=":clusterJ18_J21_J22_4_0" index="0" speed="8.69" length="19.71" shape="-296.34,-99.93 -297.13,-100.16 -299.42,-104.69 -298.47,-110.85 -294.81,-117.49"/>
    </edge>
    <edge id=":clusterJ18_J21_J22_2" function="internal">
        <lane id=":clusterJ18_J21_J22_2_0" index="0" speed="13.89" length="23.29" shape="-291.08,-101.60 -297.15,-102.59 -299.80,-105.57 -299.02,-110.54 -294.81,-117.49"/>
    </edge>
    <edge id=":clusterJ18_J21_J22_3" function="internal">
        <lane id=":clusterJ18_J21_J22_3_0" index="0" speed="13.89" length="0.10" shape="-291.08,-101.60 -291.08,-101.60"/>
    </edge>
    <edge id=":clusterJ19_J23_J24_0" function="internal">
        <lane id=":clusterJ19_J23_J24_0_0" index="0" speed="13.89" length="14.93" shape="-3.69,-301.43 -14.25,-311.99"/>
    </edge>
    <edge id=":clusterJ19_J23_J24_1" function="internal">
        <lane id=":clusterJ19_J23_J24_1_0" index="0" speed="13.89" length="14.93" shape="-11.99,-314.25 -1.43,-303.69"/>
    </edge>
    <edge id=":clusterJ19_J23_J24_2" function="internal">
        <lane id=":clusterJ19_J23_J24_2_0" index="0" speed="8.68" length="23.19" shape="-31.80,-300.50 -22.35,-303.76 -16.28,-306.76 -13.58,-309.50 -14.25,-311.99"/>
    </edge>
    <edge id=":clusterJ19_J23_J24_3" function="internal">
        <lane id=":clusterJ19_J23_J24_3_0" index="0" speed="13.89" length="31.24" shape="-31.80,-300.50 -20.25,-303.64 -11.34,-305.21 -5.06,-305.23 -1.43,-303.69"/>
    </edge>

    <edge id="-E0" from="J2" to="clusterJ11_J12_J17" priority="-1" shape="-400.00,-700.00 -510.89,-589.11">
        <lane id="-E0_0" index="0" speed="13.89" length="141.35" shape="-403.96,-693.78 -503.91,-593.83"/>
    </edge>
    <edge id="-E0.156" from="clusterJ11_J12_J17" to="clusterJ10_J15_J9" priority="-1" shape="-510.89,-589.11 -626.02,-473.98">
        <lane id="-E0.156_0" index="0" speed="13.89" length="159.27" shape="-512.27,-585.47 -624.89,-472.85"/>
    </edge>
    <edge id="-E0.319" from="clusterJ10_J15_J9" to="clusterJ13_J6_J7" priority="-1" shape="-626.02,-473.98 -725.00,-375.00">
        <lane id="-E0.319_0" index="0" speed="13.89" length="108.62" shape="-627.72,-470.02 -704.52,-393.21"/>
    </edge>
    <edge id="-E0.459" from="clusterJ13_J6_J7" to="J1" priority="-1" shape="-725.00,-375.00 -900.00,-200.00">
        <lane id="-E0.459_0" index="0" speed="13.89" length="234.36" shape="-723.87,-373.87 -889.59,-208.15"/>
    </edge>
    <edge id="-E1" from="J2" to="clusterJ19_J23_J24" priority="-1" shape="-400.00,-700.00 -7.87,-307.87">
        <lane id="-E1_0" index="0" speed="13.89" length="539.93" shape="-393.78,-696.04 -11.99,-314.25"/>
    </edge>
    <edge id="-E1.554" from="clusterJ19_J23_J24" to="J3" priority="-1" shape="-7.87,-307.87 200.00,-100.00">
        <lane id="-E1.554_0" index="0" speed="13.89" length="271.89" shape="-1.43,-303.69 190.83,-111.43"/>
    </edge>
    <edge id="-E2" from="J2" to="J4" priority="-1">
        <lane id="-E2_0" index="0" speed="13.89" length="546.76" shape="-406.22,-703.96 -792.84,-1090.58"/>
    </edge>
    <edge id="-E3" from="J2" to="J5" priority="-1">
        <lane id="-E3_0" index="0" speed="13.89" length="546.76" shape="-396.04,-706.22 -9.42,-1092.84"/>
    </edge>
    <edge id="-E4" from="J1" to="J4" priority="-1">
        <lane id="-E4_0" index="0" speed="13.89" length="881.76" shape="-900.14,-213.22 -802.77,-1089.58"/>
    </edge>
    <edge id="-E5" from="J5" to="J4" priority="-1">
        <lane id="-E5_0" index="0" speed="13.89" length="776.55" shape="-11.73,-1098.40 -788.27,-1098.40"/>
    </edge>
    <edge id="-E6" from="J8" to="J1" priority="-1">
        <lane id="-E6_0" index="0" speed="13.89" length="301.67" shape="-605.61,-100.18 -891.80,-195.58"/>
    </edge>
    <edge id="-E7" from="J8" to="clusterJ13_J14_J15" priority="-1" shape="-600.00,-100.00 -504.79,-100.00">
        <lane id="-E7_0" index="0" speed="13.89" length="81.54" shape="-595.05,-101.60 -513.52,-101.60"/>
    </edge>
    <edge id="-E7.201" from="clusterJ16_J17_J20" to="clusterJ18_J21_J22" priority="-1" shape="-397.93,-100.00 -291.08,-100.00">
        <lane id="-E7.201_0" index="0" speed="13.89" length="106.85" shape="-397.93,-101.60 -291.08,-101.60"/>
    </edge>
    <edge id="-E7.307" from="clusterJ18_J21_J22" to="J3" priority="-1" shape="-291.08,-100.00 200.00,-100.00">
        <lane id="-E7.307_0" index="0" speed="13.89" length="479.35" shape="-291.08,-101.60 188.27,-101.60"/>
    </edge>
    <edge id="-E7.95" from="clusterJ13_J14_J15" to="clusterJ16_J17_J20" priority="-1" shape="-504.79,-100.00 -397.93,-100.00">
        <lane id="-E7.95_0" index="0" speed="13.89" length="104.28" shape="-502.21,-101.60 -397.93,-101.60"/>
    </edge>
    <edge id="-E8" from="J3" to="J5" priority="-1">
        <lane id="-E8_0" index="0" speed="13.89" length="995.26" shape="195.57,-113.97 0.39,-1089.90"/>
    </edge>
    <edge id="E0" from="J1" to="clusterJ13_J6_J7" priority="-1" shape="-900.00,-200.00 -722.51,-377.49">
        <lane id="E0_0" index="0" speed="13.89" length="234.36" shape="-891.85,-210.41 -726.13,-376.13"/>
    </edge>
    <edge id="E0.251" from="clusterJ13_J6_J7" to="clusterJ10_J15_J9" priority="-1" shape="-722.51,-377.49 -623.18,-476.82">
        <lane id="E0.251_0" index="0" speed="13.89" length="108.62" shape="-706.79,-395.48 -629.98,-472.28"/>
    </edge>
    <edge id="E0.391" from="clusterJ10_J15_J9" to="clusterJ11_J12_J17" priority="-1" shape="-623.18,-476.82 -507.00,-593.00">
        <lane id="E0.391_0" index="0" speed="13.89" length="155.25" shape="-624.31,-477.95 -514.53,-587.73"/>
    </edge>
    <edge id="E0.555" from="clusterJ11_J12_J17" to="J2" priority="-1" shape="-507.00,-593.00 -400.00,-700.00">
        <lane id="E0.555_0" index="0" speed="13.89" length="141.35" shape="-506.17,-596.09 -406.22,-696.04"/>
    </edge>
    <edge id="E1" from="J3" to="clusterJ19_J23_J24" priority="-1" shape="200.00,-100.00 -11.65,-311.65">
        <lane id="E1_0" index="0" speed="13.89" length="271.89" shape="188.57,-109.17 -3.69,-301.43"/>
    </edge>
    <edge id="E1.299" from="clusterJ19_J23_J24" to="J2" priority="-1" shape="-11.65,-311.65 -400.00,-700.00">
        <lane id="E1.299_0" index="0" speed="13.89" length="539.93" shape="-14.25,-311.99 -396.04,-693.78"/>
    </edge>
    <edge id="E10" from="clusterJ13_J14_J15" to="clusterJ10_J15_J9" priority="-1" shape="-510.27,-118.68 -592.74,-432.88">
        <lane id="E10_0" index="0" speed="8.33" length="320.84" shape="-511.82,-118.27 -593.27,-428.60"/>
    </edge>
    <edge id="E11" from="clusterJ16_J17_J20" to="clusterJ11_J12_J17" priority="-1" shape="-406.10,-117.42 -498.77,-557.40">
        <lane id="E11_0" index="0" speed="8.33" length="449.63" shape="-407.67,-117.09 -500.34,-557.07"/>
    </edge>
    <edge id="E12" from="clusterJ18_J21_J22" to="clusterJ19_J23_J24" priority="-1" shape="-293.53,-116.53 -194.59,-249.30 -31.33,-298.97">
        <lane id="E12_0" index="0" speed="13.89" length="337.28" shape="-294.81,-117.49 -195.56,-250.68 -31.80,-300.50"/>
    </edge>
    <edge id="E2" from="J4" to="J2" priority="-1">
        <lane id="E2_0" index="0" speed="13.89" length="546.76" shape="-790.58,-1092.84 -403.96,-706.22"/>
    </edge>
    <edge id="E3" from="J5" to="J2" priority="-1">
        <lane id="E3_0" index="0" speed="13.89" length="546.76" shape="-7.16,-1090.58 -393.78,-703.96"/>
    </edge>
    <edge id="E4" from="J4" to="J1" priority="-1">
        <lane id="E4_0" index="0" speed="13.89" length="881.76" shape="-799.59,-1089.23 -896.96,-212.87"/>
    </edge>
    <edge id="E5" from="J4" to="J5" priority="-1">
        <lane id="E5_0" index="0" speed="13.89" length="776.55" shape="-788.27,-1101.60 -11.73,-1101.60"/>
    </edge>
    <edge id="E6" from="J1" to="J8" priority="-1">
        <lane id="E6_0" index="0" speed="13.89" length="301.67" shape="-890.79,-198.62 -604.60,-103.22"/>
    </edge>
    <edge id="E7" from="J3" to="clusterJ18_J21_J22" priority="-1" shape="200.00,-100.00 -295.81,-100.00">
        <lane id="E7_0" index="0" speed="13.89" length="479.35" shape="188.27,-98.40 -291.08,-98.40"/>
    </edge>
    <edge id="E7.495" from="clusterJ18_J21_J22" to="clusterJ16_J17_J20" priority="-1" shape="-295.81,-100.00 -402.83,-100.00">
        <lane id="E7.495_0" index="0" speed="13.89" length="102.12" shape="-295.81,-98.40 -397.93,-98.40"/>
    </edge>
    <edge id="E7.602" from="clusterJ16_J17_J20" to="clusterJ13_J14_J15" priority="-1" shape="-402.83,-100.00 -508.39,-100.00">
        <lane id="E7.602_0" index="0" speed="13.89" length="99.38" shape="-402.83,-98.40 -502.21,-98.40"/>
    </edge>
    <edge id="E7.708" from="clusterJ13_J14_J15" to="J8" priority="-1" shape="-508.39,-100.00 -600.00,-100.00">
        <lane id="E7.708_0" index="0" speed="13.89" length="81.54" shape="-513.52,-98.40 -595.05,-98.40"/>
    </edge>
    <edge id="E8" from="J5" to="J3" priority="-1">
        <lane id="E8_0" index="0" speed="13.89" length="995.26" shape="3.53,-1090.53 198.71,-114.60"/>
    </edge>
    <edge id="E9" from="clusterJ13_J6_J7" to="J8" priority="-1" shape="-699.57,-358.92 -600.00,-100.00">
        <lane id="E9_0" index="0" speed="13.89" length="270.51" shape="-698.08,-359.49 -600.98,-107.01"/>
    </edge>

    <tlLogic id="J2" type="static" programID="0" offset="0">
        <phase duration="30" state="GGgrrrGGgrrrr"/>
        <phase duration="3"  state="yyyrrryyyrrrr"/>
        <phase duration="30" state="rrrGGgrrrGGgr"/>
        <phase duration="3"  state="rrryyyrrryyyr"/>
    </tlLogic>
    <tlLogic id="J3" type="static" programID="0" offset="0">
        <phase duration="25" state="GGGrrr"/>
        <phase duration="3"  state="yyyrrr"/>
        <phase duration="2"  state="rrrrrr"/>
        <phase duration="27" state="GrrrGG"/>
        <phase duration="3"  state="yrrrGy"/>
        <phase duration="27" state="rrGGGr"/>
        <phase duration="3"  state="rrGyyr"/>
    </tlLogic>
    <tlLogic id="clusterJ13_J6_J7" type="static" programID="0" offset="0">
        <phase duration="86" state="GGGg"/>
        <phase duration="3"  state="yyyy"/>
        <phase duration="1"  state="rrrr"/>
    </tlLogic>
    <tlLogic id="clusterJ19_J23_J24" type="static" programID="0" offset="0">
        <phase duration="42" state="GGrr"/>
        <phase duration="3"  state="yyrr"/>
        <phase duration="42" state="rrGG"/>
        <phase duration="3"  state="rryy"/>
    </tlLogic>

    <junction id="J1" type="priority" x="-900.00" y="-200.00" incLanes="-E6_0 -E0.459_0 E4_0" intLanes=":J1_0_0 :J1_6_0 :J1_2_0 :J1_3_0 :J1_4_0 :J1_5_0" shape="-892.31,-194.06 -890.28,-200.13 -891.77,-201.46 -891.72,-202.49 -891.16,-203.75 -890.07,-205.26 -888.46,-207.02 -892.98,-211.54 -894.51,-210.41 -894.99,-210.41 -895.30,-210.79 -895.43,-211.55 -895.37,-212.69 -901.73,-213.40 -901.95,-208.52 -901.45,-204.31 -900.24,-200.76 -898.31,-197.86 -895.67,-195.63">
        <request index="0" response="000000" foes="001000" cont="0"/>
        <request index="1" response="110000" foes="111000" cont="1"/>
        <request index="2" response="100000" foes="100000" cont="0"/>
        <request index="3" response="100011" foes="100011" cont="0"/>
        <request index="4" response="000000" foes="000010" cont="0"/>
        <request index="5" response="000000" foes="001110" cont="0"/>
    </junction>
    <junction id="J2" type="traffic_light" x="-400.00" y="-700.00" incLanes="E1.299_0 E3_0 E2_0 E0.555_0" intLanes=":J2_0_0 :J2_1_0 :J2_12_0 :J2_3_0 :J2_4_0 :J2_13_0 :J2_6_0 :J2_7_0 :J2_14_0 :J2_9_0 :J2_10_0 :J2_15_0" shape="-397.17,-692.65 -392.65,-697.17 -393.90,-699.06 -394.06,-700.00 -393.90,-700.94 -393.43,-701.89 -392.65,-702.83 -397.17,-707.35 -399.06,-706.10 -400.00,-705.94 -400.94,-706.10 -401.89,-706.57 -402.83,-707.35 -407.35,-702.83 -406.10,-700.94 -405.94,-700.00 -406.10,-699.06 -406.57,-698.11 -407.35,-697.17 -402.83,-692.65 -400.94,-693.90 -400.00,-694.06 -399.06,-693.90 -398.11,-693.43">
        <request index="0"  response="000000000000" foes="000100010000" cont="0"/>
        <request index="1"  response="100000100000" foes="111100110000" cont="0"/>
        <request index="2"  response="100111100000" foes="110111110000" cont="1"/>
        <request index="3"  response="000010000000" foes="100010000000" cont="0"/>
        <request index="4"  response="000110000111" foes="100110000111" cont="0"/>
        <request index="5"  response="011110000110" foes="111110000110" cont="1"/>
        <request index="6"  response="000000000000" foes="010000000100" cont="0"/>
        <request index="7"  response="100000100000" foes="110000111100" cont="0"/>
        <request index="8"  response="100000100011" foes="110000110111" cont="1"/>
        <request index="9"  response="000000000010" foes="000000100010" cont="0"/>
        <request index="10" response="000111000110" foes="000111100110" cont="0"/>
        <request index="11" response="000110111110" foes="000110111110" cont="1"/>
    </junction>
    <junction id="J3" type="traffic_light" x="200.00" y="-100.00" incLanes="E8_0 -E1.554_0 -E7.307_0" intLanes=":J3_0_0 :J3_1_0 :J3_2_0 :J3_3_0 :J3_4_0 :J3_5_0" shape="200.28,-114.91 194.00,-113.66 191.96,-112.56 187.44,-108.04 188.80,-106.56 189.68,-105.35 190.06,-104.41 189.96,-103.74 189.36,-103.33 188.27,-103.20 188.27,-96.80 192.95,-97.30 196.55,-98.81 199.09,-101.33 200.56,-104.85 200.95,-109.38">
        <request index="0" response="000000" foes="001000" cont="0"/>
        <request index="1" response="110000" foes="111000" cont="0"/>
        <request index="2" response="100000" foes="100000" cont="0"/>
        <request index="3" response="100011" foes="100011" cont="0"/>
        <request index="4" response="000000" foes="000010" cont="0"/>
        <request index="5" response="000000" foes="001110" cont="0"/>
    </junction>