<?xml version="1.0" encoding="UTF-8"?>

<!-- generated on 2025-12-14 19:21:59 by Eclipse SUMO netedit Version 1.24.0
-->

<routes xmlns:xsi="http://www.w3.org/2001/XMLSchema-instance" xsi:noNamespaceSchemaLocation="http://sumo.dlr.de/xsd/routes_file.xsd">
    <vType id="car" length="5.00" minGap"2.00" maxspeed="20.00" accel="3.0" decel="4.5" sigma="0.5"/>
    <!-- Routes -->
    <route id="r_0" edges="E6 -E7 E10 E0.391 E0.555 -E2 E5"/>
    <route id="r_1" edges="E4 E6 -E7 -E7.95 -E7.201 E12"/>
    <route id="r_2" edges="E9 -E6 -E4 E2"/>
    <route id="r_3" edges="E8 E1 E1.299 -E3"/>
    <route id="r_4" edges="-E5 E2 -E1 -E1.554 E7 E7.495 E7.602"/>
    <route id="r_5" edges="E11 E0.555 -E1 -E1.554 -E8"/>
    <route id="r_6" edges="-E7.307 -E8 E3"/>
    <route id="r_7" edges="-E0.459 E6 -E7 E10 -E0.319 E9 -E6 E0 E0.251"/>
    <route id="r_8" edges="-E0.156 -E0.319 E9 -E7 -E7.95 -E7.201 E12 -E1.554 E7 E7.495 E7.602 E7.708"/>
</routes>
