<?xml version="1.0" encoding="UTF-8"?>

<!-- generated on 2026-01-11 17:32:09.182309 by Eclipse SUMO osmWebWizard.py v1_25_0+0000-ac6c5a6752d
<configuration>
    <net-file value="C:\Users\hamza\2026-01-11-17-31-52\osm.net.xml.gz"/>
    <output-trip-file value="C:\Users\hamza\2026-01-11-17-31-52\osm.passenger.trips.xml"/>
    <route-file value="C:\Users\hamza\2026-01-11-17-31-52\osm.passenger.rou.xml"/>
    <prefix value="veh"/>
    <trip-attributes value="departLane=&quot;best&quot;"/>
    <fringe-start-attributes value="departSpeed=&quot;max&quot;"/>
    <vehicle-class value="passenger"/>
    <lanes value="True"/>
    <fringe-factor value="5"/>
    <allow-fringe.min-length value="1000.0"/>
    <edge-permission value="passenger"/>
    <via-edge-types value="highway.motorway,highway.motorway_link,highway.trunk_link,highway.primary_link,highway.secondary_link,highway.tertiary_link"/>
    <min-distance value="300.0"/>
    <min-distance.fringe value="10.0"/>
    <remove-loops value="True"/>
    <insertion-density value="12.0"/>
</configuration>
-->

<routes xmlns:xsi="http://www.w3.org/2001/XMLSchema-instance" xsi:noNamespaceSchemaLocation="http://sumo.dlr.de/xsd/routes_file.xsd">
    <vType id="veh_passenger" vClass="passenger"/>
    <trip id="veh0" depart="0.00" from="4220943#0" to="-1292348654" departLane="best" type="veh_passenger"/>
    <trip id="veh1" depart="3.03" from="1300575832#3" to="1211145372#2" departLane="best" type="veh_passenger"/>
    <trip id="veh2" depart="6.07" from="4723685#0" to="439027698" departLane="best" type="veh_passenger" departSpeed="max"/>
    <trip id="veh3" depart="9.10" from="66227364#0" to="-314922404#2" departLane="best" type="veh_passenger" departSpeed="max"/>
    <trip id="veh4" depart="12.13" from="20434455#1" to="-132963888#1" departLane="best" type="veh_passenger"/>
    <trip id="veh5" depart="15.16" from="1138010039" to="28145010#1" departLane="best" type="veh_passenger"/>
    <trip id="veh6" depart="18.20" from="-132964154" to="1084325332#3" departLane="best" type="veh_passenger"/>
    <trip id="veh7" depart="21.23" from="4221360" to="314789419#1" departLane="best" type="veh_passenger"/>
    <trip id="veh8" depart="24.26" from="1150163951" to="314922404#2" departLane="best" type="veh_passenger"/>
    <trip id="veh9" depart="27.29" from="4824702#0" to="-1150163951" departLane="best" type="veh_passenger"/>
    <trip id="veh10" depart="30.33" from="4824573#1" to="464074058#0" departLane="best" type="veh_passenger"/>
    <trip id="veh11" depart="33.36" from="138483603#1" to="-4833240#0" departLane="best" type="veh_passenger"/>
    <trip id="veh12" depart="36.39" from="92419178#1" to="138497116#0" departLane="best" type="veh_passenger"/>
    <trip id="veh13" depart="39.43" from="4828841#0" to="331750841#1" departLane="best" type="veh_passenger"/>
    <trip id="veh14" depart="42.46" from="4824695#3" to="4718872#1" departLane="best" type="veh_passenger"/>
    <trip id="veh15" depart="45.49" from="142517768#1" to="314789426#0" departLane="best" type="veh_passenger"/>
    <trip id="veh16" depart="48.52" from="4828575" to="372160746#0" departLane="best" type="veh_passenger"/>
    <trip id="veh17" depart="51.56" from="4693852" to="-142519288" departLane="best" type="veh_passenger"/>
    <trip id="veh18" depart="54.59" from="1180983895" to="1318389674#1" departLane="best" type="veh_passenger"/>
    <trip id="veh19" depart="57.62" from="4218426#5" to="1413512694#2" departLane="best" type="veh_passenger"/>
    <trip id="veh20" depart="60.65" from="1292365242#1" to="84657870#0" departLane="best" type="veh_passenger"/>
    <trip id="veh21" depart="63.69" from="-52288464" to="4718872#0" departLane="best" type="veh_passenger"/>
    <trip id="veh22" depart="66.72" from="-4828716#5" to="142538178#2" departLane="best" type="veh_passenger"/>
    <trip id="veh23" depart="69.75" from="98428380#0" to="4221183#1" departLane="best" type="veh_passenger"/>
    <trip id="veh24" depart="72.79" from="314789420" to="4424616" departLane="best" type="veh_passenger"/>
    <trip id="veh25" depart="75.82" from="4828725" to="4786895#2" departLane="best" type="veh_passenger"/>
    <trip id="veh26" depart="78.85" from="1338909490#0" to="1300575831#1" departLane="best" type="veh_passenger"/>
    <trip id="veh27" depart="81.88" from="1086450113" to="852060632" departLane="best" type="veh_passenger"/>
    <trip id="veh28" depart="84.92" from="4223123#0" to="150276881" departLane="best" type="veh_passenger"/>
    <trip id="veh29" depart="87.95" from="789753226" to="257854047#0" departLane="best" type="veh_passenger" departSpeed="max"/>
    <trip id="veh30" depart="90.98" from="1292347198#2" to="1287657507#1" departLane="best" type="veh_passenger"/>
    <trip id="veh31" depart="94.01" from="314789424#5" to="1296086936" departLane="best" type="veh_passenger"/>
    <trip id="veh32" depart="97.05" from="314910657" to="62788579#2" departLane="best" type="veh_passenger"/>
    <trip id="veh33" depart="100.08" from="151885746#1" to="1192943711" departLane="best" type="veh_passenger"/>
    <trip id="veh34" depart="103.11" from="98643050#1" to="286219585" departLane="best" type="veh_passenger"/>
    <trip id="veh35" depart="106.14" from="-314922404#2" to="-148931314#1" departLane="best" type="veh_passenger"/>
    <trip id="veh36" depart="109.18" from="-4221183#1" to="39921271#2" departLane="best" type="veh_passenger" departSpeed="max"/>
    <trip id="veh37" depart="112.21" from="4824482#0" to="20434455#1" departLane="best" type="veh_passenger"/>
    <trip id="veh38" depart="115.24" from="-260923013#1" to="1461274721#1" departLane="best" type="veh_passenger" departSpeed="max"/>
    <trip id="veh39" depart="118.28" from="98643048" to="30710884#0" departLane="best" type="veh_passenger"/>
    <trip id="veh40" depart="121.31" from="949282470#0" to="4850354#2" departLane="best" type="veh_passenger" departSpeed="max"/>
    <trip id="veh41" depart="124.34" from="-1192943711" to="4708727" departLane="best" type="veh_passenger" departSpeed="max"/>
    <trip id="veh42" depart="127.37" from="44833848" to="30750471#0" departLane="best" type="veh_passenger" departSpeed="max"/>
    <trip id="veh43" depart="130.41" from="1292365242#1" to="4221183#1" departLane="best" type="veh_passenger"/>
    <trip id="veh44" depart="133.44" from="-4221362#0" to="229207415#0" departLane="best" type="veh_passenger"/>
    <trip id="veh45" depart="136.47" from="25719294#0" to="87286682" departLane="best" type="veh_passenger"/>
    <trip id="veh46" depart="139.50" from="558422862" to="1296086936" departLane="best" type="veh_passenger"/>
    <trip id="veh47" depart="142.54" from="789753225" to="52288463" departLane="best" type="veh_passenger"/>
    <trip id="veh48" depart="145.57" from="1319061581#0" to="4221183#0" departLane="best" type="veh_passenger"/>
    <trip id="veh49" depart="148.60" from="315030211#0" to="-4828716#5" departLane="best" type="veh_passenger"/>
    <trip id="veh50" depart="151.64" from="4783925#0" to="30710886#0" departLane="best" type="veh_passenger"/>
    <trip id="veh51" depart="154.67" from="-107957757#0" to="138347505#0" departLane="best" type="veh_passenger"/>
    <trip id="veh52" depart="157.70" from="-1292347198#1" to="84657866#0" departLane="best" type="veh_passenger"/>
    <trip id="veh53" depart="160.73" from="61723114#2" to="4828710#0" departLane="best" type="veh_passenger"/>
    <trip id="veh54" depart="163.77" from="132964153#2" to="-20434455#4" departLane="best" type="veh_passenger"/>
    <trip id="veh55" depart="166.80" from="-314910654#1" to="265499399#1" departLane="best" type="veh_passenger"/>
    <trip id="veh56" depart="169.83" from="-28368841#1" to="4754790#1" departLane="best" type="veh_passenger"/>
    <trip id="veh57" depart="172.86" from="265229649#0" to="314789424#2" departLane="best" type="veh_passenger"/>
    <trip id="veh58" depart="175.90" from="1292347198#2" to="52288464" departLane="best" type="veh_passenger"/>
    <trip id="veh59" depart="178.93" from="30710884#0" to="4722393#0" departLane="best" type="veh_passenger"/>
    <trip id="veh60" depart="181.96" from="1081646218#3" to="1338909490#1" departLane="best" type="veh_passenger"/>
    <trip id="veh61" depart="185.00" from="98638606#0" to="4221362#0" departLane="best" type="veh_passenger"/>
    <trip id="veh62" depart="188.03" from="138478937#0" to="314922404#0" departLane="best" type="veh_passenger"/>
    <trip id="veh63" depart="191.06" from="-286219585" to="4218426#1" departLane="best" type="veh_passenger"/>
    <trip id="veh64" depart="194.09" from="1248856300#2" to="431520090" departLane="best" type="veh_passenger"/>
    <trip id="veh65" depart="197.13" from="1093566895" to="-4811319#4" departLane="best" type="veh_passenger"/>
    <trip id="veh66" depart="200.16" from="852060633#1" to="314910652#0" departLane="best" type="veh_passenger"/>
    <trip id="veh67" depart="203.19" from="265229647#1" to="4800516#1" departLane="best" type="veh_passenger"/>
    <trip id="veh68" depart="206.22" from="4824697#1" to="1081646217#1" departLane="best" type="veh_passenger"/>
    <trip id="veh69" depart="209.26" from="20434455#3" to="25991150#1" departLane="best" type="veh_passenger"/>
    <trip id="veh70" depart="212.29" from="4718871#0" to="438898636#0" departLane="best" type="veh_passenger"/>
    <trip id="veh71" depart="215.32" from="976108083#0" to="-4221162" departLane="best" type="veh_passenger"/>
    <trip id="veh72" depart="218.36" from="153897364#1" to="138497116#2" departLane="best" type="veh_passenger"/>
    <trip id="veh73" depart="221.39" from="4850354#1" to="1287701225" departLane="best" type="veh_passenger"/>
    <trip id="veh74" depart="224.42" from="-976108083#0" to="24957308#0" departLane="best" type="veh_passenger"/>
    <trip id="veh75" depart="227.45" from="19631601" to="130547039" departLane="best" type="veh_passenger"/>
    <trip id="veh76" depart="230.49" from="1267335227" to="83107522#0" departLane="best" type="veh_passenger"/>
    <trip id="veh77" depart="233.52" from="240890022" to="4862682#1" departLane="best" type="veh_passenger" departSpeed="max"/>
    <trip id="veh78" depart="236.55" from="314789416" to="-152445636#2" departLane="best" type="veh_passenger"/>
    <trip id="veh79" depart="239.58" from="987726154#3" to="4828716#5" departLane="best" type="veh_passenger"/>
    <trip id="veh80" depart="242.62" from="929241513" to="84657864#0" departLane="best" type="veh_passenger" departSpeed="max"/>
    <trip id="veh81" depart="245.65" from="4833240#0" to="-852060636#1" departLane="best" type="veh_passenger" departSpeed="max"/>
    <trip id="veh82" depart="248.68" from="265485999" to="1157218234#1" departLane="best" type="veh_passenger" departSpeed="max"/>
    <trip id="veh83" depart="251.71" from="142517769#2" to="976108083#1" departLane="best" type="veh_passenger"/>
    <trip id="veh84" depart="254.75" from="1292347198#2" to="4800516#0" departLane="best" type="veh_passenger"/>
    <trip id="veh85" depart="257.78" from="25719294#2" to="20434455#3" departLane="best" type="veh_passenger"/>
    <trip id="veh86" depart="260.81" from="92419178#1" to="98638606#0" departLane="best" type="veh_passenger"/>
    <trip id="veh87" depart="263.85" from="314789419#1" to="4708725#0" departLane="best" type="veh_passenger"/>
    <trip id="veh88" depart="266.88" from="-4824707" to="1320033536#3" departLane="best" type="veh_passenger"/>
    <trip id="veh89" depart="269.91" from="929241513" to="314910672#0" departLane="best" type="veh_passenger" departSpeed="max"/>
    <trip id="veh90" depart="272.94" from="30710944" to="4741726#0" departLane="best" type="veh_passenger"/>
    <trip id="veh91" depart="275.98" from="-20434455#4" to="314922395#2" departLane="best" type="veh_passenger"/>
    <trip id="veh92" depart="279.01" from="-4827474#0" to="913957243#0" departLane="best" type="veh_passenger"/>
    <trip id="veh93" depart="282.04" from="-30710884#1" to="1021922636" departLane="best" type="veh_passenger"/>
    <trip id="veh94" depart="285.07" from="62788579#2" to="1287650914" departLane="best" type="veh_passenger"/>
    <trip id="veh95" depart="288.11" from="19205537#0" to="314922395#1" departLane="best" type="veh_passenger" departSpeed="max"/>
    <trip id="veh96" depart="291.14" from="288841045#1" to="84657869#2" departLane="best" type="veh_passenger"/>
    <trip id="veh97" depart="294.17" from="1248983896" to="150276881" departLane="best" type="veh_passenger" departSpeed="max"/>
    <trip id="veh98" depart="297.21" from="439027697" to="1329587156" departLane="best" type="veh_passenger"/>
    <trip id="veh99" depart="300.24" from="1338909490#1" to="4744726" departLane="best" type="veh_passenger"/>
    <trip id="veh100" depart="303.27" from="-286219586#1" to="257848103#0" departLane="best" type="veh_passenger" departSpeed="max"/>
    <trip id="veh101" depart="306.30" from="987726154#1" to="98643048" departLane="best" type="veh_passenger"/>
    <trip id="veh102" depart="309.34" from="1292347198#2" to="84657869#0" departLane="best" type="veh_passenger"/>
    <trip id="veh103" depart="312.37" from="62788553#0" to="61723114#2" departLane="best" type="veh_passenger"/>
    <trip id="veh104" depart="315.40" from="1414274495#1" to="-49513600#3" departLane="best" type="veh_passenger"/>
    <trip id="veh105" depart="318.43" from="4828716#3" to="4652510#2" departLane="best" type="veh_passenger"/>
    <trip id="veh106" depart="321.47" from="4221367#1" to="-1157218234#1" departLane="best" type="veh_passenger"/>
    <trip id="veh107" depart="324.50" from="4824705#1" to="1329587156" departLane="best" type="veh_passenger"/>
    <trip id="veh108" depart="327.53" from="42759527#1" to="849288287" departLane="best" type="veh_passenger"/>
    <trip id="veh109" depart="330.57" from="-4800516#1" to="-4696881#0" departLane="best" type="veh_passenger"/>
    <trip id="veh110" depart="333.60" from="-4220943#0" to="314789426#2" departLane="best" type="veh_passenger"/>
    <trip id="veh111" depart="336.63" from="1298040048" to="331750841#1" departLane="best" type="veh_passenger"/>
    <trip id="veh112" depart="339.66" from="4708726#1" to="1091760768#1" departLane="best" type="veh_passenger"/>
    <trip id="veh113" depart="342.70" from="4218426#1" to="1296092419" departLane="best" type="veh_passenger"/>
    <trip id="veh114" depart="345.73" from="4828839" to="-36877721#2" departLane="best" type="veh_passenger"/>
    <trip id="veh115" depart="348.76" from="20434455#3" to="130528359" departLane="best" type="veh_passenger"/>
    <trip id="veh116" depart="351.79" from="-1081646218#3" to="4778284#0" departLane="best" type="veh_passenger"/>
    <trip id="veh117" depart="354.83" from="4218501#0" to="1296086936" departLane="best" type="veh_passenger"/>
    <trip id="veh118" depart="357.86" from="4723918#2" to="314789426#0" departLane="best" type="veh_passenger"/>
    <trip id="veh119" depart="360.89" from="20443962#0" to="-1157218235" departLane="best" type="veh_passenger"/>
    <trip id="veh120" depart="363.93" from="-288841045#2" to="61893921" departLane="best" type="veh_passenger"/>
    <trip id="veh121" depart="366.96" from="676073620#0" to="314789419#1" departLane="best" type="veh_passenger"/>
    <trip id="veh122" depart="369.99" from="4828716#5" to="314922395#0" departLane="best" type="veh_passenger"/>
    <trip id="veh123" depart="373.02" from="132964155#0" to="62788580" departLane="best" type="veh_passenger"/>
    <trip id="veh124" depart="376.06" from="4824558#2" to="4850354#2" departLane="best" type="veh_passenger"/>
    <trip id="veh125" depart="379.09" from="665569433#0" to="1150163951" departLane="best" type="veh_passenger"/>
    <trip id="veh126" depart="382.12" from="1267335227" to="-42686228#1" departLane="best" type="veh_passenger"/>
    <trip id="veh127" depart="385.15" from="4786894#2" to="61893921" departLane="best" type="veh_passenger"/>
    <trip id="veh128" depart="388.19" from="-4824705#3" to="84657866#1" departLane="best" type="veh_passenger"/>
    <trip id="veh129" depart="391.22" from="49895860" to="95814391#1" departLane="best" type="veh_passenger"/>
    <trip id="veh130" depart="394.25" from="4824703#1" to="61893921" departLane="best" type="veh_passenger"/>
    <trip id="veh131" depart="397.29" from="-132963886" to="4723927" departLane="best" type="veh_passenger"/>
    <trip id="veh132" depart="400.32" from="138419767#1" to="84657866#2" departLane="best" type="veh_passenger"/>
    <trip id="veh133" depart="403.35" from="4824570#0" to="49895860" departLane="best" type="veh_passenger"/>
    <trip id="veh134" depart="406.38" from="4824703#1" to="1300575830" departLane="best" type="veh_passenger"/>
    <trip id="veh135" depart="409.42" from="4811319#2" to="-440074588#1" departLane="best" type="veh_passenger"/>
    <trip id="veh136" depart="412.45" from="259408983#0" to="1330630748" departLane="best" type="veh_passenger"/>
    <trip id="veh137" depart="415.48" from="-130764246" to="1081647731#1" departLane="best" type="veh_passenger"/>
    <trip id="veh138" depart="418.51" from="138347489#8" to="505080410#2" departLane="best" type="veh_passenger"/>
    <trip id="veh139" depart="421.55" from="929241513" to="1306312630" departLane="best" type="veh_passenger" departSpeed="max"/>
    <trip id="veh140" depart="424.58" from="4221179" to="153897364#0" departLane="best" type="veh_passenger"/>
    <trip id="veh141" depart="427.61" from="96260140#1" to="30711286#1" departLane="best" type="veh_passenger"/>
    <trip id="veh142" depart="430.64" from="852060639#0" to="-4696881#0" departLane="best" type="veh_passenger"/>
    <trip id="veh143" depart="433.68" from="929241513" to="-96136748#0" departLane="best" type="veh_passenger" departSpeed="max"/>
    <trip id="veh144" depart="436.71" from="929241513" to="1298038631#0" departLane="best" type="veh_passenger" departSpeed="max"/>
    <trip id="veh145" depart="439.74" from="-4221183#0" to="229207415#0" departLane="best" type="veh_passenger"/>
    <trip id="veh146" depart="442.78" from="4718870#1" to="1338909490#3" departLane="best" type="veh_passenger"/>
    <trip id="veh147" depart="445.81" from="315030208#0" to="286219586#1" departLane="best" type="veh_passenger"/>
    <trip id="veh148" depart="448.84" from="1278835239#1" to="4660896#3" departLane="best" type="veh_passenger"/>
    <trip id="veh149" depart="451.87" from="-107957757#2" to="83464626" departLane="best" type="veh_passenger"/>
    <trip id="veh150" depart="454.91" from="30710768#0" to="4708726#1" departLane="best" type="veh_passenger"/>
    <trip id="veh151" depart="457.94" from="4723927" to="433304798#0" departLane="best" type="veh_passenger"/>
    <trip id="veh152" depart="460.97" from="1413218448" to="-288841045#0" departLane="best" type="veh_passenger"/>
    <trip id="veh153" depart="464.00" from="1338909488#0" to="4828840#1" departLane="best" type="veh_passenger"/>
    <trip id="veh154" depart="467.04" from="4708728#1" to="1329587156" departLane="best" type="veh_passenger"/>
    <trip id="veh155" depart="470.07" from="132964155#2" to="154202877#0" departLane="best" type="veh_passenger"/>
    <trip id="veh156" depart="473.10" from="153897364#1" to="1319061583#1" departLane="best" type="veh_passenger"/>
    <trip id="veh157" depart="476.14" from="-4693899#1" to="182584872#3" departLane="best" type="veh_passenger"/>
    <trip id="veh158" depart="479.17" from="852157518" to="439038669" departLane="best" type="veh_passenger"/>
    <trip id="veh159" depart="482.20" from="66993636#1" to="371146251" departLane="best" type="veh_passenger"/>
    <trip id="veh160" depart="485.23" from="1319061583#3" to="314789421#0" departLane="best" type="veh_passenger"/>
    <trip id="veh161" depart="488.27" from="-1021922636" to="1311973512#1" departLane="best" type="veh_passenger"/>
    <trip id="veh162" depart="491.30" from="20443962#1" to="314910674" departLane="best" type="veh_passenger"/>
    <trip id="veh163" depart="494.33" from="4223098" to="259409009#0" departLane="best" type="veh_passenger"/>
    <trip id="veh164" depart="497.36" from="240890022" to="1157218234#1" departLane="best" type="veh_passenger" departSpeed="max"/>
    <trip id="veh165" depart="500.40" from="265229647#1" to="62788580" departLane="best" type="veh_passenger"/>
    <trip id="veh166" depart="503.43" from="4824558#2" to="-87597144" departLane="best" type="veh_passenger"/>
    <trip id="veh167" depart="506.46" from="-30711286#1" to="288841045#1" departLane="best" type="veh_passenger"/>
    <trip id="veh168" depart="509.50" from="4218426#0" to="138483603#2" departLane="best" type="veh_passenger"/>
    <trip id="veh169" depart="512.53" from="4824707" to="4744724#2" departLane="best" type="veh_passenger"/>
    <trip id="veh170" depart="515.56" from="1081646217#1" to="-1292347198#3" departLane="best" type="veh_passenger"/>
    <trip id="veh171" depart="518.59" from="1257757584" to="26330928" departLane="best" type="veh_passenger" departSpeed="max"/>
    <trip id="veh172" depart="521.63" from="4833240#0" to="-288841045#5" departLane="best" type="veh_passenger" departSpeed="max"/>
    <trip id="veh173" depart="524.66" from="171934808#0" to="4218426#0" departLane="best" type="veh_passenger"/>
    <trip id="veh174" depart="527.69" from="1021922636" to="4599174#1" departLane="best" type="veh_passenger"/>
    <trip id="veh175" depart="530.72" from="265499402#6" to="1287374897" departLane="best" type="veh_passenger"/>
    <trip id="veh176" depart="533.76" from="4726248#0" to="4775851#0" departLane="best" type="veh_passenger"/>
    <trip id="veh177" depart="536.79" from="-4220940" to="20443908" departLane="best" type="veh_passenger"/>
    <trip id="veh178" depart="539.82" from="-665569434" to="891060523" departLane="best" type="veh_passenger"/>
    <trip id="veh179" depart="542.86" from="1267335226" to="4828841#0" departLane="best" type="veh_passenger"/>
    <trip id="veh180" depart="545.89" from="257848102" to="4824565#1" departLane="best" type="veh_passenger"/>
    <trip id="veh181" depart="548.92" from="43324938#2" to="977860442#2" departLane="best" type="veh_passenger"/>
    <trip id="veh182" depart="551.95" from="66227364#0" to="37035107#1" departLane="best" type="veh_passenger" departSpeed="max"/>
    <trip id="veh183" depart="554.99" from="4708728#0" to="27729303#1" departLane="best" type="veh_passenger"/>
    <trip id="veh184" depart="558.02" from="4828710#1" to="314789421#0" departLane="best" type="veh_passenger"/>
    <trip id="veh185" depart="561.05" from="66227390#0" to="4726157#1" departLane="best" type="veh_passenger"/>
    <trip id="veh186" depart="564.08" from="265229648#1" to="1292365243#1" departLane="best" type="veh_passenger"/>
    <trip id="veh187" depart="567.12" from="1258579106#0" to="4221162" departLane="best" type="veh_passenger"/>
    <trip id="veh188" depart="570.15" from="4754793#0" to="292096645" departLane="best" type="veh_passenger"/>
    <trip id="veh189" depart="573.18" from="386330767" to="1300611097#0" departLane="best" type="veh_passenger"/>
    <trip id="veh190" depart="576.21" from="-292004065" to="1308993765" departLane="best" type="veh_passenger"/>
    <trip id="veh191" depart="579.25" from="1298038631#0" to="138232877#0" departLane="best" type="veh_passenger"/>
    <trip id="veh192" depart="582.28" from="30710884#2" to="-4824702#0" departLane="best" type="veh_passenger"/>
    <trip id="veh193" depart="585.31" from="1210430416#1" to="454115425#1" departLane="best" type="veh_passenger"/>
    <trip id="veh194" depart="588.35" from="4693899#1" to="-28145010#0" departLane="best" type="veh_passenger"/>
    <trip id="veh195" depart="591.38" from="171934810#0" to="11286596#1" departLane="best" type="veh_passenger"/>
    <trip id="veh196" depart="594.41" from="19205537#0" to="62788580" departLane="best" type="veh_passenger" departSpeed="max"/>
    <trip id="veh197" depart="597.44" from="314910657" to="4599173#1" departLane="best" type="veh_passenger"/>
    <trip id="veh198" depart="600.48" from="4850187#0" to="4756455#1" departLane="best" type="veh_passenger"/>
    <trip id="veh199" depart="603.51" from="142519288" to="-1150163951" departLane="best" type="veh_passenger"/>
    <trip id="veh200" depart="606.54" from="138601683#1" to="4744726" departLane="best" type="veh_passenger"/>
    <trip id="veh201" depart="609.57" from="4844346#0" to="87286682" departLane="best" type="veh_passenger"/>
    <trip id="veh202" depart="612.61" from="19205537#0" to="4733241#1" departLane="best" type="veh_passenger" departSpeed="max"/>
    <trip id="veh203" depart="615.64" from="30711286#1" to="315030218#1" departLane="best" type="veh_passenger"/>
    <trip id="veh204" depart="618.67" from="1150163951" to="1192943711" departLane="best" type="veh_passenger"/>
    <trip id="veh205" depart="621.71" from="229256228#0" to="-132963886" departLane="best" type="veh_passenger"/>
    <trip id="veh206" depart="624.74" from="138478933#3" to="439937531#1" departLane="best" type="veh_passenger"/>
    <trip id="veh207" depart="627.77" from="371146272" to="-130547038" departLane="best" type="veh_passenger"/>
    <trip id="veh208" depart="630.80" from="-133762373#0" to="4221189" departLane="best" type="veh_passenger"/>
    <trip id="veh209" depart="633.84" from="-152445636#2" to="142538178#2" departLane="best" type="veh_passenger"/>
    <trip id="veh210" depart="636.87" from="1091760767" to="138419767#1" departLane="best" type="veh_passenger"/>
    <trip id="veh211" depart="639.90" from="4746896#1" to="142538178#2" departLane="best" type="veh_passenger"/>
    <trip id="veh212" depart="642.93" from="4726271#1" to="4828710#1" departLane="best" type="veh_passenger"/>
    <trip id="veh213" depart="645.97" from="1267364230" to="-314910662#0" departLane="best" type="veh_passenger"/>
    <trip id="veh214" depart="649.00" from="-1292347198#1" to="314789416" departLane="best" type="veh_passenger"/>
    <trip id="veh215" depart="652.03" from="987726154#4" to="138601696#0" departLane="best" type="veh_passenger"/>
    <trip id="veh216" depart="655.07" from="4221360" to="47986355" departLane="best" type="veh_passenger"/>
    <trip id="veh217" depart="658.10" from="4221363#0" to="4744727#0" departLane="best" type="veh_passenger"/>
    <trip id="veh218" depart="661.13" from="913957243#0" to="1084499717" departLane="best" type="veh_passenger"/>
    <trip id="veh219" depart="664.16" from="-1292347198#3" to="-4828716#4" departLane="best" type="veh_passenger"/>
    <trip id="veh220" depart="667.20" from="-464074058#1" to="43324938#0" departLane="best" type="veh_passenger"/>
    <trip id="veh221" depart="670.23" from="314789426#2" to="1180983895" departLane="best" type="veh_passenger"/>
    <trip id="veh222" depart="673.26" from="4652511#0" to="4756456" departLane="best" type="veh_passenger"/>
    <trip id="veh223" depart="676.29" from="4726144#0" to="-4696881#0" departLane="best" type="veh_passenger"/>
    <trip id="veh224" depart="679.33" from="4824709" to="92417490#1" departLane="best" type="veh_passenger"/>
    <trip id="veh225" depart="682.36" from="-4221162" to="-1298038631#2" departLane="best" type="veh_passenger"/>
    <trip id="veh226" depart="685.39" from="133889263#1" to="439038669" departLane="best" type="veh_passenger"/>
    <trip id="veh227" depart="688.43" from="928478727#1" to="151885746#0" departLane="best" type="veh_passenger"/>
    <trip id="veh228" depart="691.46" from="4708723#1" to="-30710884#1" departLane="best" type="veh_passenger"/>
    <trip id="veh229" depart="694.49" from="4599173#1" to="39921271#2" departLane="best" type="veh_passenger"/>
    <trip id="veh230" depart="697.52" from="-37035107#1" to="4783925#0" departLane="best" type="veh_passenger" departSpeed="max"/>
    <trip id="veh231" depart="700.56" from="4833240#0" to="315030208#0" departLane="best" type="veh_passenger" departSpeed="max"/>
    <trip id="veh232" depart="703.59" from="-439038669" to="976108082#1" departLane="best" type="veh_passenger"/>
    <trip id="veh233" depart="706.62" from="20443962#0" to="142356187#0" departLane="best" type="veh_passenger"/>
    <trip id="veh234" depart="709.65" from="26812685#1" to="1385911443" departLane="best" type="veh_passenger"/>
    <trip id="veh235" depart="712.69" from="4833240#0" to="4827475#0" departLane="best" type="veh_passenger" departSpeed="max"/>
    <trip id="veh236" depart="715.72" from="-4218501#0" to="913957243#0" departLane="best" type="veh_passenger"/>
    <trip id="veh237" depart="718.75" from="4218426#5" to="4828554" departLane="best" type="veh_passenger"/>
    <trip id="veh238" depart="721.79" from="4696881#0" to="229207415#1" departLane="best" type="veh_passenger" departSpeed="max"/>
    <trip id="veh239" depart="724.82" from="4722407#0" to="92417490#4" departLane="best" type="veh_passenger"/>
    <trip id="veh240" depart="727.85" from="1296092419" to="4824697#2" departLane="best" type="veh_passenger"/>
    <trip id="veh241" depart="730.88" from="30710768#0" to="26533895#0" departLane="best" type="veh_passenger"/>
    <trip id="veh242" depart="733.92" from="229256228#0" to="4722393#2" departLane="best" type="veh_passenger"/>
    <trip id="veh243" depart="736.95" from="1296068423" to="4844332" departLane="best" type="veh_passenger"/>
    <trip id="veh244" depart="739.98" from="4828710#1" to="-314922404#2" departLane="best" type="veh_passenger"/>
    <trip id="veh245" depart="743.01" from="62788553#0" to="1287374897" departLane="best" type="veh_passenger"/>
    <trip id="veh246" depart="746.05" from="259409010#1" to="34606479#1" departLane="best" type="veh_passenger"/>
    <trip id="veh247" depart="749.08" from="142517769#2" to="-1320033536#3" departLane="best" type="veh_passenger"/>