<?xml version="1.0" encoding="UTF-8"?>

<!-- generated on 2025-12-09T14:22:04.599634+01:00 by Eclipse SUMO netedit 1.25.0
-->

<routes xmlns:xsi="http://www.w3.org/2001/XMLSchema-instance" xsi:noNamespaceSchemaLocation="http://sumo.dlr.de/xsd/routes_file.xsd">
    <!-- VTypes -->
    <vType id="car" length="5.00" minGap="2.00" maxSpeed="20.00" accel="3.0" decel="4.5" sigma="0.5"/>
    <!-- Routes -->
    <route id="r_0" edges="-E0.128 -E3 -E2 -E2.62 -E2.146 -E9 -E9.45 -E0 E11 -E8 E10 E2.29 -E4 E0.57 E0.112"/>
    <route id="r_1" edges="-E0.95 E4 E2.121 E3 E0 E4 -E2.62 -E10 E8 -E12 E9.45"/>
    <route id="r_2" edges="E9 E12 E8.36 -E11 -E0.95 E4 -E2.62 -E2.146 -E9 -E9.45"/>
</routes>
